# generated using pymatgen
data_Ba2CdS3
_symmetry_space_group_name_H-M   'P 1'
_cell_length_a   4.38332088
_cell_length_b   9.02697036
_cell_length_c   17.44618602
_cell_angle_alpha   90.00000000
_cell_angle_beta   90.00000000
_cell_angle_gamma   90.00000000
_symmetry_Int_Tables_number   1
_chemical_formula_structural   Ba2CdS3
_chemical_formula_sum   'Ba8 Cd4 S12'
_cell_volume   690.31256673
_cell_formula_units_Z   4
loop_
 _symmetry_equiv_pos_site_id
 _symmetry_equiv_pos_as_xyz
  1  'x, y, z'
loop_
 _atom_type_symbol
 _atom_type_oxidation_number
  Ba2+  2.0
  Cd2+  2.0
  S2-  -2.0
loop_
 _atom_site_type_symbol
 _atom_site_label
 _atom_site_symmetry_multiplicity
 _atom_site_fract_x
 _atom_site_fract_y
 _atom_site_fract_z
 _atom_site_occupancy
  Ba2+  Ba0  1  0.25000000  0.26499383  0.45783176  1
  Ba2+  Ba1  1  0.75000000  0.23500617  0.95783176  1
  Ba2+  Ba2  1  0.25000000  0.76499383  0.04216824  1
  Ba2+  Ba3  1  0.75000000  0.73500617  0.54216824  1
  Ba2+  Ba4  1  0.25000000  0.91917709  0.78473955  1
  Ba2+  Ba5  1  0.75000000  0.08082291  0.21526045  1
  Ba2+  Ba6  1  0.25000000  0.41917709  0.71526045  1
  Ba2+  Ba7  1  0.75000000  0.58082291  0.28473955  1
  Cd2+  Cd8  1  0.75000000  0.62098856  0.86890411  1
  Cd2+  Cd9  1  0.75000000  0.12098856  0.63109589  1
  Cd2+  Cd10  1  0.25000000  0.37901144  0.13109589  1
  Cd2+  Cd11  1  0.25000000  0.87901144  0.36890411  1
  S2-  S12  1  0.25000000  0.48505964  0.90361223  1
  S2-  S13  1  0.75000000  0.51494036  0.09638777  1
  S2-  S14  1  0.25000000  0.98505964  0.59638777  1
  S2-  S15  1  0.75000000  0.01494036  0.40361223  1
  S2-  S16  1  0.25000000  0.62182817  0.42731841  1
  S2-  S17  1  0.75000000  0.37817183  0.57268159  1
  S2-  S18  1  0.25000000  0.12182817  0.07268159  1
  S2-  S19  1  0.75000000  0.68158643  0.72553961  1
  S2-  S20  1  0.25000000  0.81841357  0.22553961  1
  S2-  S21  1  0.75000000  0.18158643  0.77446039  1
  S2-  S22  1  0.25000000  0.31841357  0.27446039  1
  S2-  S23  1  0.75000000  0.87817183  0.92731841  1
