# generated using pymatgen
data_BaN2
_symmetry_space_group_name_H-M   'P 1'
_cell_length_a   7.17330684
_cell_length_b   4.45296622
_cell_length_c   7.31309529
_cell_angle_alpha   90.00000000
_cell_angle_beta   105.10999445
_cell_angle_gamma   90.00000000
_symmetry_Int_Tables_number   1
_chemical_formula_structural   BaN2
_chemical_formula_sum   'Ba4 N8'
_cell_volume   225.52233527
_cell_formula_units_Z   4
loop_
 _symmetry_equiv_pos_site_id
 _symmetry_equiv_pos_as_xyz
  1  'x, y, z'
loop_
 _atom_type_symbol
 _atom_type_oxidation_number
  Ba2+  2.0
  N-  -1.0
loop_
 _atom_site_type_symbol
 _atom_site_label
 _atom_site_symmetry_multiplicity
 _atom_site_fract_x
 _atom_site_fract_y
 _atom_site_fract_z
 _atom_site_occupancy
  Ba2+  Ba0  1  0.50000000  0.70407120  0.25000000  1
  Ba2+  Ba1  1  0.50000000  0.29592880  0.75000000  1
  Ba2+  Ba2  1  0.00000000  0.20407120  0.25000000  1
  Ba2+  Ba3  1  0.00000000  0.79592880  0.75000000  1
  N-  N4  1  0.70303135  0.14695777  0.45479638  1
  N-  N5  1  0.29696865  0.14695777  0.04520362  1
  N-  N6  1  0.70303135  0.85304223  0.95479638  1
  N-  N7  1  0.29696865  0.85304223  0.54520362  1
  N-  N8  1  0.20303135  0.64695777  0.45479638  1
  N-  N9  1  0.79696865  0.64695777  0.04520362  1
  N-  N10  1  0.20303135  0.35304223  0.95479638  1
  N-  N11  1  0.79696865  0.35304223  0.54520362  1
