# generated using pymatgen
data_BaS2
_symmetry_space_group_name_H-M   'P 1'
_cell_length_a   9.37135368
_cell_length_b   4.80735934
_cell_length_c   9.10431895
_cell_angle_alpha   90.00000000
_cell_angle_beta   117.96432895
_cell_angle_gamma   90.00000000
_symmetry_Int_Tables_number   1
_chemical_formula_structural   BaS2
_chemical_formula_sum   'Ba4 S8'
_cell_volume   362.27216127
_cell_formula_units_Z   4
loop_
 _symmetry_equiv_pos_site_id
 _symmetry_equiv_pos_as_xyz
  1  'x, y, z'
loop_
 _atom_type_symbol
 _atom_type_oxidation_number
  Ba2+  2.0
  S-  -1.0
loop_
 _atom_site_type_symbol
 _atom_site_label
 _atom_site_symmetry_multiplicity
 _atom_site_fract_x
 _atom_site_fract_y
 _atom_site_fract_z
 _atom_site_occupancy
  Ba2+  Ba0  1  0.00000000  0.14243005  0.75000000  1
  Ba2+  Ba1  1  0.00000000  0.85756995  0.25000000  1
  Ba2+  Ba2  1  0.50000000  0.64243005  0.75000000  1
  Ba2+  Ba3  1  0.50000000  0.35756995  0.25000000  1
  S-  S4  1  0.66165749  0.14634829  0.02036109  1
  S-  S5  1  0.83834251  0.64634829  0.47963891  1
  S-  S6  1  0.16165749  0.35365171  0.52036109  1
  S-  S7  1  0.33834251  0.85365171  0.97963891  1
  S-  S8  1  0.16165749  0.64634829  0.02036109  1
  S-  S9  1  0.33834251  0.14634829  0.47963891  1
  S-  S10  1  0.66165749  0.85365171  0.52036109  1
  S-  S11  1  0.83834251  0.35365171  0.97963891  1
