# generated using pymatgen
data_BaSe2
_symmetry_space_group_name_H-M   'P 1'
_cell_length_a   9.80655427
_cell_length_b   4.98782736
_cell_length_c   9.43293788
_cell_angle_alpha   90.00000000
_cell_angle_beta   117.69605065
_cell_angle_gamma   90.00000000
_symmetry_Int_Tables_number   1
_chemical_formula_structural   BaSe2
_chemical_formula_sum   'Ba4 Se8'
_cell_volume   408.53279920
_cell_formula_units_Z   4
loop_
 _symmetry_equiv_pos_site_id
 _symmetry_equiv_pos_as_xyz
  1  'x, y, z'
loop_
 _atom_type_symbol
 _atom_type_oxidation_number
  Ba2+  2.0
  Se-  -1.0
loop_
 _atom_site_type_symbol
 _atom_site_label
 _atom_site_symmetry_multiplicity
 _atom_site_fract_x
 _atom_site_fract_y
 _atom_site_fract_z
 _atom_site_occupancy
  Ba2+  Ba0  1  0.00000000  0.12802229  0.75000000  1
  Ba2+  Ba1  1  0.00000000  0.87197771  0.25000000  1
  Ba2+  Ba2  1  0.50000000  0.62802229  0.75000000  1
  Ba2+  Ba3  1  0.50000000  0.37197771  0.25000000  1
  Se-  Se4  1  0.65619384  0.12922908  0.02502730  1
  Se-  Se5  1  0.84380616  0.62922908  0.47497270  1
  Se-  Se6  1  0.15619384  0.37077092  0.52502730  1
  Se-  Se7  1  0.34380616  0.87077092  0.97497270  1
  Se-  Se8  1  0.15619384  0.62922908  0.02502730  1
  Se-  Se9  1  0.34380616  0.12922908  0.47497270  1
  Se-  Se10  1  0.65619384  0.87077092  0.52502730  1
  Se-  Se11  1  0.84380616  0.37077092  0.97497270  1
