# generated using pymatgen
data_BaSiF6
_symmetry_space_group_name_H-M   'P 1'
_cell_length_a   7.19689295
_cell_length_b   7.19689295
_cell_length_c   6.98683576
_cell_angle_alpha   90.00000000
_cell_angle_beta   90.00000000
_cell_angle_gamma   120.00000000
_symmetry_Int_Tables_number   1
_chemical_formula_structural   BaSiF6
_chemical_formula_sum   'Ba3 Si3 F18'
_cell_volume   313.40163056
_cell_formula_units_Z   3
loop_
 _symmetry_equiv_pos_site_id
 _symmetry_equiv_pos_as_xyz
  1  'x, y, z'
loop_
 _atom_type_symbol
 _atom_type_oxidation_number
  Ba2+  2.0
  Si4+  4.0
  F-  -1.0
loop_
 _atom_site_type_symbol
 _atom_site_label
 _atom_site_symmetry_multiplicity
 _atom_site_fract_x
 _atom_site_fract_y
 _atom_site_fract_z
 _atom_site_occupancy
  Ba2+  Ba0  1  0.00000000  0.00000000  0.50000000  1
  Ba2+  Ba1  1  0.66666667  0.33333333  0.83333333  1
  Ba2+  Ba2  1  0.33333333  0.66666667  0.16666667  1
  Si4+  Si3  1  0.00000000  0.00000000  0.00000000  1
  Si4+  Si4  1  0.66666667  0.33333333  0.33333333  1
  Si4+  Si5  1  0.33333333  0.66666667  0.66666667  1
  F-  F6  1  0.22325093  0.44650186  0.52339836  1
  F-  F7  1  0.22325093  0.77674907  0.52339836  1
  F-  F8  1  0.77674907  0.22325093  0.47660164  1
  F-  F9  1  0.77674907  0.55349814  0.47660164  1
  F-  F10  1  0.44650186  0.22325093  0.47660164  1
  F-  F11  1  0.55349814  0.77674907  0.52339836  1
  F-  F12  1  0.88991760  0.77983519  0.85673169  1
  F-  F13  1  0.88991760  0.11008240  0.85673169  1
  F-  F14  1  0.44341574  0.55658426  0.80993497  1
  F-  F15  1  0.44341574  0.88683147  0.80993497  1
  F-  F16  1  0.11316853  0.55658426  0.80993497  1
  F-  F17  1  0.22016481  0.11008240  0.85673169  1
  F-  F18  1  0.55658426  0.11316853  0.19006503  1
  F-  F19  1  0.55658426  0.44341574  0.19006503  1
  F-  F20  1  0.11008240  0.88991760  0.14326831  1
  F-  F21  1  0.11008240  0.22016481  0.14326831  1
  F-  F22  1  0.77983519  0.88991760  0.14326831  1
  F-  F23  1  0.88683147  0.44341574  0.19006503  1
