# generated using pymatgen
data_BaTiF6
_symmetry_space_group_name_H-M   'P 1'
_cell_length_a   7.40929475
_cell_length_b   7.40929475
_cell_length_c   7.24337463
_cell_angle_alpha   90.00000000
_cell_angle_beta   90.00000000
_cell_angle_gamma   120.00000000
_symmetry_Int_Tables_number   1
_chemical_formula_structural   BaTiF6
_chemical_formula_sum   'Ba3 Ti3 F18'
_cell_volume   344.37000948
_cell_formula_units_Z   3
loop_
 _symmetry_equiv_pos_site_id
 _symmetry_equiv_pos_as_xyz
  1  'x, y, z'
loop_
 _atom_type_symbol
 _atom_type_oxidation_number
  Ba2+  2.0
  Ti4+  4.0
  F-  -1.0
loop_
 _atom_site_type_symbol
 _atom_site_label
 _atom_site_symmetry_multiplicity
 _atom_site_fract_x
 _atom_site_fract_y
 _atom_site_fract_z
 _atom_site_occupancy
  Ba2+  Ba0  1  0.00000000  0.00000000  0.00000000  1
  Ba2+  Ba1  1  0.66666667  0.33333333  0.33333333  1
  Ba2+  Ba2  1  0.33333333  0.66666667  0.66666667  1
  Ti4+  Ti3  1  0.00000000  0.00000000  0.50000000  1
  Ti4+  Ti4  1  0.66666667  0.33333333  0.83333333  1
  Ti4+  Ti5  1  0.33333333  0.66666667  0.16666667  1
  F-  F6  1  0.76672502  0.88336251  0.65626329  1
  F-  F7  1  0.11663749  0.23327498  0.65626329  1
  F-  F8  1  0.23327498  0.11663749  0.34373671  1
  F-  F9  1  0.88336251  0.11663749  0.34373671  1
  F-  F10  1  0.88336251  0.76672502  0.34373671  1
  F-  F11  1  0.11663749  0.88336251  0.65626329  1
  F-  F12  1  0.43339169  0.21669584  0.98959662  1
  F-  F13  1  0.78330416  0.56660831  0.98959662  1
  F-  F14  1  0.89994165  0.44997082  0.67707004  1
  F-  F15  1  0.55002918  0.44997082  0.67707004  1
  F-  F16  1  0.55002918  0.10005835  0.67707004  1
  F-  F17  1  0.78330416  0.21669584  0.98959662  1
  F-  F18  1  0.10005835  0.55002918  0.32292996  1
  F-  F19  1  0.44997082  0.89994165  0.32292996  1
  F-  F20  1  0.56660831  0.78330416  0.01040338  1
  F-  F21  1  0.21669584  0.78330416  0.01040338  1
  F-  F22  1  0.21669584  0.43339169  0.01040338  1
  F-  F23  1  0.44997082  0.55002918  0.32292996  1
