# generated using pymatgen
data_BaZrN2
_symmetry_space_group_name_H-M   'P 1'
_cell_length_a   4.18039391
_cell_length_b   4.18039391
_cell_length_c   8.43381836
_cell_angle_alpha   90.00000000
_cell_angle_beta   90.00000000
_cell_angle_gamma   90.00000000
_symmetry_Int_Tables_number   1
_chemical_formula_structural   BaZrN2
_chemical_formula_sum   'Ba2 Zr2 N4'
_cell_volume   147.38682252
_cell_formula_units_Z   2
loop_
 _symmetry_equiv_pos_site_id
 _symmetry_equiv_pos_as_xyz
  1  'x, y, z'
loop_
 _atom_type_symbol
 _atom_type_oxidation_number
  Ba2+  2.0
  Zr4+  4.0
  N3-  -3.0
loop_
 _atom_site_type_symbol
 _atom_site_label
 _atom_site_symmetry_multiplicity
 _atom_site_fract_x
 _atom_site_fract_y
 _atom_site_fract_z
 _atom_site_occupancy
  Ba2+  Ba0  1  0.00000000  0.50000000  0.15296413  1
  Ba2+  Ba1  1  0.50000000  0.00000000  0.84703587  1
  Zr4+  Zr2  1  0.50000000  0.00000000  0.41288856  1
  Zr4+  Zr3  1  0.00000000  0.50000000  0.58711144  1
  N3-  N4  1  0.00000000  0.50000000  0.82331353  1
  N3-  N5  1  0.50000000  0.00000000  0.17668647  1
  N3-  N6  1  0.00000000  0.00000000  0.50000000  1
  N3-  N7  1  0.50000000  0.50000000  0.50000000  1
