# generated using pymatgen
data_CaO2
_symmetry_space_group_name_H-M   'P 1'
_cell_length_a   3.28024430
_cell_length_b   3.28024430
_cell_length_c   6.71513692
_cell_angle_alpha   90.00000000
_cell_angle_beta   90.00000000
_cell_angle_gamma   90.00000000
_symmetry_Int_Tables_number   1
_chemical_formula_structural   CaO2
_chemical_formula_sum   'Ca2 O4'
_cell_volume   72.25489127
_cell_formula_units_Z   2
loop_
 _symmetry_equiv_pos_site_id
 _symmetry_equiv_pos_as_xyz
  1  'x, y, z'
loop_
 _atom_type_symbol
 _atom_type_oxidation_number
  Ca2+  2.0
  O-  -1.0
loop_
 _atom_site_type_symbol
 _atom_site_label
 _atom_site_symmetry_multiplicity
 _atom_site_fract_x
 _atom_site_fract_y
 _atom_site_fract_z
 _atom_site_occupancy
  Ca2+  Ca0  1  0.50000000  0.50000000  0.00000000  1
  Ca2+  Ca1  1  0.00000000  0.00000000  0.50000000  1
  O-  O2  1  0.00000000  0.00000000  0.88795098  1
  O-  O3  1  0.50000000  0.50000000  0.61204902  1
  O-  O4  1  0.50000000  0.50000000  0.38795098  1
  O-  O5  1  0.00000000  0.00000000  0.11204902  1
