# generated using pymatgen
data_CaSi
_symmetry_space_group_name_H-M   'P 1'
_cell_length_a   4.55495478
_cell_length_b   10.69134328
_cell_length_c   3.90539621
_cell_angle_alpha   90.00000000
_cell_angle_beta   90.00000000
_cell_angle_gamma   90.00000000
_symmetry_Int_Tables_number   1
_chemical_formula_structural   CaSi
_chemical_formula_sum   'Ca4 Si4'
_cell_volume   190.18727013
_cell_formula_units_Z   4
loop_
 _symmetry_equiv_pos_site_id
 _symmetry_equiv_pos_as_xyz
  1  'x, y, z'
loop_
 _atom_type_symbol
 _atom_type_oxidation_number
  Ca2+  2.0
  Si2-  -2.0
loop_
 _atom_site_type_symbol
 _atom_site_label
 _atom_site_symmetry_multiplicity
 _atom_site_fract_x
 _atom_site_fract_y
 _atom_site_fract_z
 _atom_site_occupancy
  Ca2+  Ca0  1  0.00000000  0.86148564  0.25000000  1
  Ca2+  Ca1  1  0.50000000  0.63851436  0.75000000  1
  Ca2+  Ca2  1  0.50000000  0.36148564  0.25000000  1
  Ca2+  Ca3  1  0.00000000  0.13851436  0.75000000  1
  Si2-  Si4  1  0.00000000  0.56844761  0.25000000  1
  Si2-  Si5  1  0.50000000  0.93155239  0.75000000  1
  Si2-  Si6  1  0.50000000  0.06844761  0.25000000  1
  Si2-  Si7  1  0.00000000  0.43155239  0.75000000  1
