# generated using pymatgen
data_CaTiF5
_symmetry_space_group_name_H-M   'P 1'
_cell_length_a   9.08929485
_cell_length_b   6.61310563
_cell_length_c   7.67064176
_cell_angle_alpha   90.00000000
_cell_angle_beta   114.76190548
_cell_angle_gamma   90.00000000
_symmetry_Int_Tables_number   1
_chemical_formula_structural   CaTiF5
_chemical_formula_sum   'Ca4 Ti4 F20'
_cell_volume   418.67792295
_cell_formula_units_Z   4
loop_
 _symmetry_equiv_pos_site_id
 _symmetry_equiv_pos_as_xyz
  1  'x, y, z'
loop_
 _atom_type_symbol
 _atom_type_oxidation_number
  Ca2+  2.0
  Ti3+  3.0
  F-  -1.0
loop_
 _atom_site_type_symbol
 _atom_site_label
 _atom_site_symmetry_multiplicity
 _atom_site_fract_x
 _atom_site_fract_y
 _atom_site_fract_z
 _atom_site_occupancy
  Ca2+  Ca0  1  0.50000000  0.95780126  0.75000000  1
  Ca2+  Ca1  1  0.50000000  0.04219874  0.25000000  1
  Ca2+  Ca2  1  0.00000000  0.45780126  0.75000000  1
  Ca2+  Ca3  1  0.00000000  0.54219874  0.25000000  1
  Ti3+  Ti4  1  0.00000000  0.00000000  0.00000000  1
  Ti3+  Ti5  1  0.00000000  0.00000000  0.50000000  1
  Ti3+  Ti6  1  0.50000000  0.50000000  0.00000000  1
  Ti3+  Ti7  1  0.50000000  0.50000000  0.50000000  1
  F-  F8  1  0.77087582  0.97974216  0.88154460  1
  F-  F9  1  0.22912418  0.97974216  0.61845540  1
  F-  F10  1  0.22912418  0.02025784  0.11845540  1
  F-  F11  1  0.77087582  0.02025784  0.38154460  1
  F-  F12  1  0.50000000  0.59611983  0.75000000  1
  F-  F13  1  0.50000000  0.40388017  0.25000000  1
  F-  F14  1  0.51097283  0.80132212  0.46951653  1
  F-  F15  1  0.48902717  0.80132212  0.03048347  1
  F-  F16  1  0.48902717  0.19867788  0.53048347  1
  F-  F17  1  0.51097283  0.19867788  0.96951653  1
  F-  F18  1  0.27087582  0.47974216  0.88154460  1
  F-  F19  1  0.72912417  0.47974216  0.61845540  1
  F-  F20  1  0.72912417  0.52025784  0.11845540  1
  F-  F21  1  0.27087582  0.52025784  0.38154460  1
  F-  F22  1  0.00000000  0.09611983  0.75000000  1
  F-  F23  1  0.00000000  0.90388017  0.25000000  1
  F-  F24  1  0.01097283  0.30132212  0.46951653  1
  F-  F25  1  0.98902717  0.30132212  0.03048347  1
  F-  F26  1  0.98902717  0.69867788  0.53048347  1
  F-  F27  1  0.01097283  0.69867788  0.96951653  1
