# generated using pymatgen
data_CdP4
_symmetry_space_group_name_H-M   'P 1'
_cell_length_a   5.28931194
_cell_length_b   5.17206495
_cell_length_c   7.65047280
_cell_angle_alpha   90.00000000
_cell_angle_beta   99.24475770
_cell_angle_gamma   90.00000000
_symmetry_Int_Tables_number   1
_chemical_formula_structural   CdP4
_chemical_formula_sum   'Cd2 P8'
_cell_volume   206.57294924
_cell_formula_units_Z   2
loop_
 _symmetry_equiv_pos_site_id
 _symmetry_equiv_pos_as_xyz
  1  'x, y, z'
loop_
 _atom_type_symbol
 _atom_type_oxidation_number
  Cd2+  2.0
  P0.5-  -0.5
loop_
 _atom_site_type_symbol
 _atom_site_label
 _atom_site_symmetry_multiplicity
 _atom_site_fract_x
 _atom_site_fract_y
 _atom_site_fract_z
 _atom_site_occupancy
  Cd2+  Cd0  1  0.00000000  0.50000000  0.50000000  1
  Cd2+  Cd1  1  0.00000000  0.00000000  0.00000000  1
  P0.5-  P2  1  0.39997685  0.60127637  0.10076850  1
  P0.5-  P3  1  0.60002315  0.10127637  0.39923150  1
  P0.5-  P4  1  0.26354923  0.28937911  0.25246277  1
  P0.5-  P5  1  0.73645077  0.78937911  0.24753723  1
  P0.5-  P6  1  0.73645077  0.71062089  0.74753723  1
  P0.5-  P7  1  0.26354923  0.21062089  0.75246277  1
  P0.5-  P8  1  0.39997685  0.89872363  0.60076850  1
  P0.5-  P9  1  0.60002315  0.39872363  0.89923150  1
