# generated using pymatgen
data_CoI2
_symmetry_space_group_name_H-M   'P 1'
_cell_length_a   3.89176710
_cell_length_b   3.89176710
_cell_length_c   6.63402127
_cell_angle_alpha   90.00000000
_cell_angle_beta   90.00000000
_cell_angle_gamma   120.00000000
_symmetry_Int_Tables_number   1
_chemical_formula_structural   CoI2
_chemical_formula_sum   'Co1 I2'
_cell_volume   87.01641299
_cell_formula_units_Z   1
loop_
 _symmetry_equiv_pos_site_id
 _symmetry_equiv_pos_as_xyz
  1  'x, y, z'
loop_
 _atom_type_symbol
 _atom_type_oxidation_number
  Co2+  2.0
  I-  -1.0
loop_
 _atom_site_type_symbol
 _atom_site_label
 _atom_site_symmetry_multiplicity
 _atom_site_fract_x
 _atom_site_fract_y
 _atom_site_fract_z
 _atom_site_occupancy
  Co2+  Co0  1  0.00000000  0.00000000  0.00000000  1
  I-  I1  1  0.33333333  0.66666667  0.22282614  1
  I-  I2  1  0.66666667  0.33333333  0.77717386  1
