# generated using pymatgen
data_Cr2F5
_symmetry_space_group_name_H-M   'P 1'
_cell_length_a   7.74690084
_cell_length_b   7.43021718
_cell_length_c   7.11416549
_cell_angle_alpha   90.00000000
_cell_angle_beta   120.44487218
_cell_angle_gamma   90.00000000
_symmetry_Int_Tables_number   1
_chemical_formula_structural   Cr2F5
_chemical_formula_sum   'Cr8 F20'
_cell_volume   353.03659483
_cell_formula_units_Z   4
loop_
 _symmetry_equiv_pos_site_id
 _symmetry_equiv_pos_as_xyz
  1  'x, y, z'
loop_
 _atom_type_symbol
 _atom_type_oxidation_number
  Cr2+  2.0
  Cr3+  3.0
  F-  -1.0
loop_
 _atom_site_type_symbol
 _atom_site_label
 _atom_site_symmetry_multiplicity
 _atom_site_fract_x
 _atom_site_fract_y
 _atom_site_fract_z
 _atom_site_occupancy
  Cr2+  Cr0  1  0.75000000  0.25000000  0.50000000  1
  Cr2+  Cr1  1  0.75000000  0.75000000  0.00000000  1
  Cr2+  Cr2  1  0.25000000  0.75000000  0.50000000  1
  Cr2+  Cr3  1  0.25000000  0.25000000  0.00000000  1
  Cr3+  Cr4  1  0.75000000  0.75000000  0.50000000  1
  Cr3+  Cr5  1  0.75000000  0.25000000  0.00000000  1
  Cr3+  Cr6  1  0.25000000  0.25000000  0.50000000  1
  Cr3+  Cr7  1  0.25000000  0.75000000  0.00000000  1
  F-  F8  1  0.67550178  0.50357997  0.45768430  1
  F-  F9  1  0.82449822  0.00357997  0.04231570  1
  F-  F10  1  0.82449822  0.99642003  0.54231570  1
  F-  F11  1  0.67550178  0.49642003  0.95768430  1
  F-  F12  1  0.50000000  0.81951559  0.25000000  1
  F-  F13  1  0.00000000  0.68048441  0.75000000  1
  F-  F14  1  0.13035821  0.72137268  0.17870019  1
  F-  F15  1  0.86964179  0.72137268  0.32129981  1
  F-  F16  1  0.36964179  0.77862732  0.82129981  1
  F-  F17  1  0.63035821  0.77862732  0.67870019  1
  F-  F18  1  0.17550178  0.00357997  0.45768430  1
  F-  F19  1  0.32449822  0.50357998  0.04231570  1
  F-  F20  1  0.32449822  0.49642003  0.54231570  1
  F-  F21  1  0.17550178  0.99642002  0.95768430  1
  F-  F22  1  0.00000000  0.31951559  0.25000000  1
  F-  F23  1  0.50000000  0.18048441  0.75000000  1
  F-  F24  1  0.63035821  0.22137268  0.17870019  1
  F-  F25  1  0.36964179  0.22137268  0.32129981  1
  F-  F26  1  0.86964179  0.27862732  0.82129981  1
  F-  F27  1  0.13035821  0.27862732  0.67870019  1
