# generated using pymatgen
data_CrF3
_symmetry_space_group_name_H-M   'P 1'
_cell_length_a   4.90899707
_cell_length_b   4.90899707
_cell_length_c   13.31158111
_cell_angle_alpha   90.00000000
_cell_angle_beta   90.00000000
_cell_angle_gamma   120.00000000
_symmetry_Int_Tables_number   1
_chemical_formula_structural   CrF3
_chemical_formula_sum   'Cr6 F18'
_cell_volume   277.80868635
_cell_formula_units_Z   6
loop_
 _symmetry_equiv_pos_site_id
 _symmetry_equiv_pos_as_xyz
  1  'x, y, z'
loop_
 _atom_type_symbol
 _atom_type_oxidation_number
  Cr3+  3.0
  F-  -1.0
loop_
 _atom_site_type_symbol
 _atom_site_label
 _atom_site_symmetry_multiplicity
 _atom_site_fract_x
 _atom_site_fract_y
 _atom_site_fract_z
 _atom_site_occupancy
  Cr3+  Cr0  1  0.00000000  0.00000000  0.50000000  1
  Cr3+  Cr1  1  0.66666667  0.33333333  0.33333333  1
  Cr3+  Cr2  1  0.66666667  0.33333333  0.83333333  1
  Cr3+  Cr3  1  0.33333333  0.66666667  0.66666667  1
  Cr3+  Cr4  1  0.33333333  0.66666667  0.16666667  1
  Cr3+  Cr5  1  0.00000000  0.00000000  0.00000000  1
  F-  F6  1  0.36870446  0.00000000  0.25000000  1
  F-  F7  1  0.70203779  0.03537113  0.41666667  1
  F-  F8  1  0.63129554  0.63129554  0.25000000  1
  F-  F9  1  0.96462887  0.66666667  0.41666667  1
  F-  F10  1  0.33333333  0.29796221  0.41666667  1
  F-  F11  1  0.00000000  0.36870446  0.25000000  1
  F-  F12  1  0.03537113  0.33333333  0.58333333  1
  F-  F13  1  0.36870446  0.36870446  0.75000000  1
  F-  F14  1  0.29796221  0.96462887  0.58333333  1
  F-  F15  1  0.63129554  0.00000000  0.75000000  1
  F-  F16  1  1.00000000  0.63129554  0.75000000  1
  F-  F17  1  0.66666667  0.70203779  0.58333333  1
  F-  F18  1  0.70203779  0.66666667  0.91666667  1
  F-  F19  1  0.03537113  0.70203779  0.08333333  1
  F-  F20  1  0.96462887  0.29796221  0.91666667  1
  F-  F21  1  0.29796221  0.33333333  0.08333333  1
  F-  F22  1  0.66666667  0.96462887  0.08333333  1
  F-  F23  1  0.33333333  0.03537113  0.91666667  1
