# generated using pymatgen
data_CuPbF6
_symmetry_space_group_name_H-M   'P 1'
_cell_length_a   5.08412664
_cell_length_b   5.09310985
_cell_length_c   5.60217989
_cell_angle_alpha   61.89616037
_cell_angle_beta   65.12445418
_cell_angle_gamma   62.02650601
_symmetry_Int_Tables_number   1
_chemical_formula_structural   CuPbF6
_chemical_formula_sum   'Cu1 Pb1 F6'
_cell_volume   109.23358504
_cell_formula_units_Z   1
loop_
 _symmetry_equiv_pos_site_id
 _symmetry_equiv_pos_as_xyz
  1  'x, y, z'
loop_
 _atom_type_symbol
 _atom_type_oxidation_number
  Cu2+  2.0
  Pb4+  4.0
  F-  -1.0
loop_
 _atom_site_type_symbol
 _atom_site_label
 _atom_site_symmetry_multiplicity
 _atom_site_fract_x
 _atom_site_fract_y
 _atom_site_fract_z
 _atom_site_occupancy
  Cu2+  Cu0  1  0.00000000  0.00000000  0.00000000  1
  Pb4+  Pb1  1  0.50000000  0.50000000  0.50000000  1
  F-  F2  1  0.90292252  0.62192002  0.24500901  1
  F-  F3  1  0.09707748  0.37807998  0.75499099  1
  F-  F4  1  0.76181190  0.08565133  0.76588523  1
  F-  F5  1  0.23818810  0.91434867  0.23411477  1
  F-  F6  1  0.60063852  0.25214443  0.25436606  1
  F-  F7  1  0.39936148  0.74785557  0.74563394  1
