# generated using pymatgen
data_LiN3
_symmetry_space_group_name_H-M   'P 1'
_cell_length_a   5.50250752
_cell_length_b   3.26874366
_cell_length_c   4.84021176
_cell_angle_alpha   90.00000000
_cell_angle_beta   104.78388366
_cell_angle_gamma   90.00000000
_symmetry_Int_Tables_number   1
_chemical_formula_structural   LiN3
_chemical_formula_sum   'Li2 N6'
_cell_volume   84.17541690
_cell_formula_units_Z   2
loop_
 _symmetry_equiv_pos_site_id
 _symmetry_equiv_pos_as_xyz
  1  'x, y, z'
loop_
 _atom_type_symbol
 _atom_type_oxidation_number
  Li+  1.0
  N0.33333333-  -0.3333333333333333
loop_
 _atom_site_type_symbol
 _atom_site_label
 _atom_site_symmetry_multiplicity
 _atom_site_fract_x
 _atom_site_fract_y
 _atom_site_fract_z
 _atom_site_occupancy
  Li+  Li0  1  0.00000000  0.00000000  0.00000000  1
  Li+  Li1  1  0.50000000  0.50000000  0.00000000  1
  N0.33333333-  N2  1  0.61541758  0.00000000  0.74083570  1
  N0.33333333-  N3  1  0.38458242  0.00000000  0.25916430  1
  N0.33333333-  N4  1  0.50000000  0.00000000  0.50000000  1
  N0.33333333-  N5  1  0.11541758  0.50000000  0.74083570  1
  N0.33333333-  N6  1  0.88458242  0.50000000  0.25916430  1
  N0.33333333-  N7  1  0.00000000  0.50000000  0.50000000  1
