# generated using pymatgen
data_Mg2PdN2
_symmetry_space_group_name_H-M   'P 1'
_cell_length_a   3.05763425
_cell_length_b   3.05763425
_cell_length_c   12.81247255
_cell_angle_alpha   90.00000000
_cell_angle_beta   90.00000000
_cell_angle_gamma   90.00000000
_symmetry_Int_Tables_number   1
_chemical_formula_structural   Mg2PdN2
_chemical_formula_sum   'Mg4 Pd2 N4'
_cell_volume   119.78543601
_cell_formula_units_Z   2
loop_
 _symmetry_equiv_pos_site_id
 _symmetry_equiv_pos_as_xyz
  1  'x, y, z'
loop_
 _atom_type_symbol
 _atom_type_oxidation_number
  Mg2+  2.0
  Pd2+  2.0
  N3-  -3.0
loop_
 _atom_site_type_symbol
 _atom_site_label
 _atom_site_symmetry_multiplicity
 _atom_site_fract_x
 _atom_site_fract_y
 _atom_site_fract_z
 _atom_site_occupancy
  Mg2+  Mg0  1  0.00000000  0.00000000  0.33125000  1
  Mg2+  Mg1  1  0.00000000  0.00000000  0.66875000  1
  Mg2+  Mg2  1  0.50000000  0.50000000  0.83125000  1
  Mg2+  Mg3  1  0.50000000  0.50000000  0.16875000  1
  Pd2+  Pd4  1  0.50000000  0.50000000  0.50000000  1
  Pd2+  Pd5  1  0.00000000  0.00000000  0.00000000  1
  N3-  N6  1  0.50000000  0.50000000  0.65660400  1
  N3-  N7  1  0.50000000  0.50000000  0.34339600  1
  N3-  N8  1  0.00000000  0.00000000  0.15660400  1
  N3-  N9  1  0.00000000  0.00000000  0.84339600  1
