# generated using pymatgen
data_MgZr2
_symmetry_space_group_name_H-M   'P 1'
_cell_length_a   3.23304784
_cell_length_b   3.23304784
_cell_length_c   23.32954048
_cell_angle_alpha   90.00000000
_cell_angle_beta   90.00000000
_cell_angle_gamma   120.00000000
_symmetry_Int_Tables_number   1
_chemical_formula_structural   MgZr2
_chemical_formula_sum   'Mg3 Zr6'
_cell_volume   211.18403291
_cell_formula_units_Z   3
loop_
 _symmetry_equiv_pos_site_id
 _symmetry_equiv_pos_as_xyz
  1  'x, y, z'
loop_
 _atom_site_type_symbol
 _atom_site_label
 _atom_site_symmetry_multiplicity
 _atom_site_fract_x
 _atom_site_fract_y
 _atom_site_fract_z
 _atom_site_occupancy
  Mg  Mg0  1  0.00000000  0.00000000  0.00000000  1
  Mg  Mg1  1  0.66666667  0.33333333  0.33333333  1
  Mg  Mg2  1  0.33333333  0.66666667  0.66666667  1
  Zr  Zr3  1  0.00000000  0.00000000  0.21942677  1
  Zr  Zr4  1  0.66666667  0.33333333  0.11390656  1
  Zr  Zr5  1  0.66666667  0.33333333  0.55276010  1
  Zr  Zr6  1  0.33333333  0.66666667  0.44723990  1
  Zr  Zr7  1  0.33333333  0.66666667  0.88609344  1
  Zr  Zr8  1  0.00000000  0.00000000  0.78057323  1
