# generated using pymatgen
data_MnCrF5
_symmetry_space_group_name_H-M   'P 1'
_cell_length_a   8.60663774
_cell_length_b   6.27136198
_cell_length_c   7.35301527
_cell_angle_alpha   90.00000000
_cell_angle_beta   115.39824562
_cell_angle_gamma   90.00000000
_symmetry_Int_Tables_number   1
_chemical_formula_structural   MnCrF5
_chemical_formula_sum   'Mn4 Cr4 F20'
_cell_volume   358.52228234
_cell_formula_units_Z   4
loop_
 _symmetry_equiv_pos_site_id
 _symmetry_equiv_pos_as_xyz
  1  'x, y, z'
loop_
 _atom_type_symbol
 _atom_type_oxidation_number
  Mn2+  2.0
  Cr3+  3.0
  F-  -1.0
loop_
 _atom_site_type_symbol
 _atom_site_label
 _atom_site_symmetry_multiplicity
 _atom_site_fract_x
 _atom_site_fract_y
 _atom_site_fract_z
 _atom_site_occupancy
  Mn2+  Mn0  1  0.00000000  0.53870268  0.25000000  1
  Mn2+  Mn1  1  0.00000000  0.46129732  0.75000000  1
  Mn2+  Mn2  1  0.50000000  0.03870268  0.25000000  1
  Mn2+  Mn3  1  0.50000000  0.96129732  0.75000000  1
  Cr3+  Cr4  1  0.00000000  0.00000000  0.00000000  1
  Cr3+  Cr5  1  0.00000000  0.00000000  0.50000000  1
  Cr3+  Cr6  1  0.50000000  0.50000000  0.00000000  1
  Cr3+  Cr7  1  0.50000000  0.50000000  0.50000000  1
  F-  F8  1  0.74184995  0.46728661  0.62865991  1
  F-  F9  1  0.25815005  0.46728661  0.87134009  1
  F-  F10  1  0.25815005  0.53271339  0.37134009  1
  F-  F11  1  0.74184995  0.53271339  0.12865991  1
  F-  F12  1  0.00000000  0.90608906  0.25000000  1
  F-  F13  1  0.00000000  0.09391094  0.75000000  1
  F-  F14  1  0.01809971  0.70002947  0.96490932  1
  F-  F15  1  0.98190029  0.70002947  0.53509068  1
  F-  F16  1  0.98190029  0.29997053  0.03509068  1
  F-  F17  1  0.01809971  0.29997053  0.46490932  1
  F-  F18  1  0.24184995  0.96728661  0.62865991  1
  F-  F19  1  0.75815005  0.96728661  0.87134009  1
  F-  F20  1  0.75815005  0.03271339  0.37134009  1
  F-  F21  1  0.24184995  0.03271339  0.12865991  1
  F-  F22  1  0.50000000  0.40608906  0.25000000  1
  F-  F23  1  0.50000000  0.59391094  0.75000000  1
  F-  F24  1  0.51809971  0.20002947  0.96490932  1
  F-  F25  1  0.48190029  0.20002947  0.53509068  1
  F-  F26  1  0.48190029  0.79997053  0.03509068  1
  F-  F27  1  0.51809971  0.79997053  0.46490932  1
