# generated using pymatgen
data_NaPdF3
_symmetry_space_group_name_H-M   'P 1'
_cell_length_a   6.63676547
_cell_length_b   6.75088661
_cell_length_c   7.31208740
_cell_angle_alpha   116.43952176
_cell_angle_beta   106.51395629
_cell_angle_gamma   91.32961694
_symmetry_Int_Tables_number   1
_chemical_formula_structural   NaPdF3
_chemical_formula_sum   'Na4 Pd4 F12'
_cell_volume   276.93131026
_cell_formula_units_Z   4
loop_
 _symmetry_equiv_pos_site_id
 _symmetry_equiv_pos_as_xyz
  1  'x, y, z'
loop_
 _atom_type_symbol
 _atom_type_oxidation_number
  Na+  1.0
  Pd2+  2.0
  F-  -1.0
loop_
 _atom_site_type_symbol
 _atom_site_label
 _atom_site_symmetry_multiplicity
 _atom_site_fract_x
 _atom_site_fract_y
 _atom_site_fract_z
 _atom_site_occupancy
  Na+  Na0  1  0.48974320  0.75675851  0.99103677  1
  Na+  Na1  1  0.51025680  0.24324149  0.00896323  1
  Na+  Na2  1  0.00000000  0.50000000  0.00000000  1
  Na+  Na3  1  0.00000000  0.50000000  0.50000000  1
  Pd2+  Pd4  1  0.47310982  0.73937184  0.46458726  1
  Pd2+  Pd5  1  0.52689018  0.26062816  0.53541274  1
  Pd2+  Pd6  1  0.00000000  0.00000000  0.00000000  1
  Pd2+  Pd7  1  0.00000000  0.00000000  0.50000000  1
  F-  F8  1  0.16271229  0.71637740  0.41385648  1
  F-  F9  1  0.83728771  0.28362260  0.58614352  1
  F-  F10  1  0.39404759  0.57081529  0.14962129  1
  F-  F11  1  0.60595241  0.42918471  0.85037871  1
  F-  F12  1  0.53342723  0.89898266  0.77807119  1
  F-  F13  1  0.46657277  0.10101734  0.22192881  1
  F-  F14  1  0.87623180  0.86363450  0.14815110  1
  F-  F15  1  0.88541839  0.27953181  0.13378987  1
  F-  F16  1  0.12376820  0.13636550  0.85184890  1
  F-  F17  1  0.11458161  0.72046819  0.86621013  1
  F-  F18  1  0.78037565  0.74951361  0.49372463  1
  F-  F19  1  0.21962435  0.25048639  0.50627537  1
