# generated using pymatgen
data_NbCl4
_symmetry_space_group_name_H-M   'P 1'
_cell_length_a   12.21756281
_cell_length_b   6.86210889
_cell_length_c   8.39022794
_cell_angle_alpha   90.00000000
_cell_angle_beta   131.16574814
_cell_angle_gamma   90.00000000
_symmetry_Int_Tables_number   1
_chemical_formula_structural   NbCl4
_chemical_formula_sum   'Nb4 Cl16'
_cell_volume   529.54208919
_cell_formula_units_Z   4
loop_
 _symmetry_equiv_pos_site_id
 _symmetry_equiv_pos_as_xyz
  1  'x, y, z'
loop_
 _atom_type_symbol
 _atom_type_oxidation_number
  Nb4+  4.0
  Cl-  -1.0
loop_
 _atom_site_type_symbol
 _atom_site_label
 _atom_site_symmetry_multiplicity
 _atom_site_fract_x
 _atom_site_fract_y
 _atom_site_fract_z
 _atom_site_occupancy
  Nb4+  Nb0  1  0.00000000  0.21920439  0.00000000  1
  Nb4+  Nb1  1  0.00000000  0.78079561  0.00000000  1
  Nb4+  Nb2  1  0.50000000  0.71920439  0.00000000  1
  Nb4+  Nb3  1  0.50000000  0.28079561  0.00000000  1
  Cl-  Cl4  1  0.68124680  0.00000000  0.15507907  1
  Cl-  Cl5  1  0.31875320  0.00000000  0.84492093  1
  Cl-  Cl6  1  0.29168397  0.50000000  0.82199822  1
  Cl-  Cl7  1  0.70831603  0.50000000  0.17800178  1
  Cl-  Cl8  1  0.97629868  0.75572955  0.70280495  1
  Cl-  Cl9  1  0.02370132  0.75572955  0.29719505  1
  Cl-  Cl10  1  0.02370132  0.24427045  0.29719505  1
  Cl-  Cl11  1  0.97629868  0.24427045  0.70280495  1
  Cl-  Cl12  1  0.18124680  0.50000000  0.15507907  1
  Cl-  Cl13  1  0.81875320  0.50000000  0.84492093  1
  Cl-  Cl14  1  0.79168397  0.00000000  0.82199822  1
  Cl-  Cl15  1  0.20831603  0.00000000  0.17800178  1
  Cl-  Cl16  1  0.47629868  0.25572955  0.70280495  1
  Cl-  Cl17  1  0.52370132  0.25572955  0.29719505  1
  Cl-  Cl18  1  0.52370132  0.74427046  0.29719505  1
  Cl-  Cl19  1  0.47629868  0.74427046  0.70280495  1
