# generated using pymatgen
data_NiBr2
_symmetry_space_group_name_H-M   'P 1'
_cell_length_a   3.66571306
_cell_length_b   3.66571306
_cell_length_c   19.60732264
_cell_angle_alpha   90.00000000
_cell_angle_beta   90.00000000
_cell_angle_gamma   120.00000000
_symmetry_Int_Tables_number   1
_chemical_formula_structural   NiBr2
_chemical_formula_sum   'Ni3 Br6'
_cell_volume   228.17384483
_cell_formula_units_Z   3
loop_
 _symmetry_equiv_pos_site_id
 _symmetry_equiv_pos_as_xyz
  1  'x, y, z'
loop_
 _atom_type_symbol
 _atom_type_oxidation_number
  Ni2+  2.0
  Br-  -1.0
loop_
 _atom_site_type_symbol
 _atom_site_label
 _atom_site_symmetry_multiplicity
 _atom_site_fract_x
 _atom_site_fract_y
 _atom_site_fract_z
 _atom_site_occupancy
  Ni2+  Ni0  1  0.00000000  0.00000000  0.00000000  1
  Ni2+  Ni1  1  0.66666667  0.33333333  0.33333333  1
  Ni2+  Ni2  1  0.33333333  0.66666667  0.66666667  1
  Br-  Br3  1  0.00000000  0.00000000  0.26110778  1
  Br-  Br4  1  0.66666667  0.33333333  0.07222555  1
  Br-  Br5  1  0.66666667  0.33333333  0.59444111  1
  Br-  Br6  1  0.33333333  0.66666667  0.40555889  1
  Br-  Br7  1  0.33333333  0.66666667  0.92777445  1
  Br-  Br8  1  0.00000000  0.00000000  0.73889222  1
