# generated using pymatgen
data_NiSnF6
_symmetry_space_group_name_H-M   'P 1'
_cell_length_a   5.05922407
_cell_length_b   5.05922407
_cell_length_c   13.87737688
_cell_angle_alpha   90.00000000
_cell_angle_beta   90.00000000
_cell_angle_gamma   120.00000000
_symmetry_Int_Tables_number   1
_chemical_formula_structural   NiSnF6
_chemical_formula_sum   'Ni3 Sn3 F18'
_cell_volume   307.61382118
_cell_formula_units_Z   3
loop_
 _symmetry_equiv_pos_site_id
 _symmetry_equiv_pos_as_xyz
  1  'x, y, z'
loop_
 _atom_type_symbol
 _atom_type_oxidation_number
  Ni2+  2.0
  Sn4+  4.0
  F-  -1.0
loop_
 _atom_site_type_symbol
 _atom_site_label
 _atom_site_symmetry_multiplicity
 _atom_site_fract_x
 _atom_site_fract_y
 _atom_site_fract_z
 _atom_site_occupancy
  Ni2+  Ni0  1  0.33333333  0.66666667  0.16666667  1
  Ni2+  Ni1  1  1.00000000  0.00000000  0.50000000  1
  Ni2+  Ni2  1  0.66666667  0.33333333  0.83333333  1
  Sn4+  Sn3  1  0.00000000  0.00000000  0.00000000  1
  Sn4+  Sn4  1  0.66666667  0.33333333  0.33333333  1
  Sn4+  Sn5  1  0.33333333  0.66666667  0.66666667  1
  F-  F6  1  0.66676281  0.97015806  0.08269561  1
  F-  F7  1  0.02984194  0.69660475  0.08269561  1
  F-  F8  1  0.36327142  0.00009614  0.25063772  1
  F-  F9  1  0.63682473  0.63672858  0.25063772  1
  F-  F10  1  0.99990386  0.36317527  0.25063772  1
  F-  F11  1  0.30339525  0.33323719  0.08269561  1
  F-  F12  1  0.33342948  0.30349139  0.41602894  1
  F-  F13  1  0.69650861  0.02993808  0.41602894  1
  F-  F14  1  0.02993808  0.33342948  0.58397106  1
  F-  F15  1  0.30349139  0.97006192  0.58397106  1
  F-  F16  1  0.66657052  0.69650861  0.58397106  1
  F-  F17  1  0.97006192  0.66657052  0.41602894  1
  F-  F18  1  0.00009614  0.63682473  0.74936228  1
  F-  F19  1  0.36317527  0.36327142  0.74936228  1
  F-  F20  1  0.69660475  0.66676281  0.91730439  1
  F-  F21  1  0.97015806  0.30339525  0.91730439  1
  F-  F22  1  0.33323719  0.02984194  0.91730439  1
  F-  F23  1  0.63672858  0.99990386  0.74936228  1
