# generated using pymatgen
data_PdF3
_symmetry_space_group_name_H-M   'P 1'
_cell_length_a   5.01254136
_cell_length_b   5.01254136
_cell_length_c   14.11801536
_cell_angle_alpha   90.00000000
_cell_angle_beta   90.00000000
_cell_angle_gamma   120.00000000
_symmetry_Int_Tables_number   1
_chemical_formula_structural   PdF3
_chemical_formula_sum   'Pd6 F18'
_cell_volume   307.19929918
_cell_formula_units_Z   6
loop_
 _symmetry_equiv_pos_site_id
 _symmetry_equiv_pos_as_xyz
  1  'x, y, z'
loop_
 _atom_type_symbol
 _atom_type_oxidation_number
  Pd3+  3.0
  F-  -1.0
loop_
 _atom_site_type_symbol
 _atom_site_label
 _atom_site_symmetry_multiplicity
 _atom_site_fract_x
 _atom_site_fract_y
 _atom_site_fract_z
 _atom_site_occupancy
  Pd3+  Pd0  1  0.33333333  0.66666667  0.16666667  1
  Pd3+  Pd1  1  0.00000000  0.00000000  0.00000000  1
  Pd3+  Pd2  1  1.00000000  0.00000000  0.50000000  1
  Pd3+  Pd3  1  0.66666667  0.33333333  0.33333333  1
  Pd3+  Pd4  1  0.66666667  0.33333333  0.83333333  1
  Pd3+  Pd5  1  0.33333333  0.66666667  0.66666667  1
  F-  F6  1  0.01423831  0.68090497  0.08333333  1
  F-  F7  1  0.31909503  0.33333333  0.08333333  1
  F-  F8  1  1.00000000  0.34757164  0.25000000  1
  F-  F9  1  0.34757164  0.00000000  0.25000000  1
  F-  F10  1  0.65242836  0.65242836  0.25000000  1
  F-  F11  1  0.66666667  0.98576169  0.08333333  1
  F-  F12  1  0.68090497  0.01423831  0.41666667  1
  F-  F13  1  0.98576169  0.66666667  0.41666667  1
  F-  F14  1  0.66666667  0.68090497  0.58333333  1
  F-  F15  1  0.01423831  0.33333333  0.58333333  1
  F-  F16  1  0.31909503  0.98576169  0.58333333  1
  F-  F17  1  0.33333333  0.31909503  0.41666667  1
  F-  F18  1  0.34757164  0.34757164  0.75000000  1
  F-  F19  1  0.65242836  1.00000000  0.75000000  1
  F-  F20  1  0.33333333  0.01423831  0.91666667  1
  F-  F21  1  0.68090497  0.66666667  0.91666667  1
  F-  F22  1  0.98576169  0.31909503  0.91666667  1
  F-  F23  1  0.00000000  0.65242836  0.75000000  1
