# generated using pymatgen
data_RbNiO2
_symmetry_space_group_name_H-M   'P 1'
_cell_length_a   8.45599200
_cell_length_b   8.45599200
_cell_length_c   8.45599200
_cell_angle_alpha   90.00000000
_cell_angle_beta   90.00000000
_cell_angle_gamma   90.00000000
_symmetry_Int_Tables_number   1
_chemical_formula_structural   RbNiO2
_chemical_formula_sum   'Rb8 Ni8 O16'
_cell_volume   604.63556672
_cell_formula_units_Z   8
loop_
 _symmetry_equiv_pos_site_id
 _symmetry_equiv_pos_as_xyz
  1  'x, y, z'
loop_
 _atom_type_symbol
 _atom_type_oxidation_number
  Rb+  1.0
  Ni3+  3.0
  O2-  -2.0
loop_
 _atom_site_type_symbol
 _atom_site_label
 _atom_site_symmetry_multiplicity
 _atom_site_fract_x
 _atom_site_fract_y
 _atom_site_fract_z
 _atom_site_occupancy
  Rb+  Rb0  1  0.50000000  0.00000000  0.50000000  1
  Rb+  Rb1  1  0.25000000  0.25000000  0.25000000  1
  Rb+  Rb2  1  0.50000000  0.50000000  0.00000000  1
  Rb+  Rb3  1  0.25000000  0.75000000  0.75000000  1
  Rb+  Rb4  1  0.00000000  0.00000000  0.00000000  1
  Rb+  Rb5  1  0.75000000  0.25000000  0.75000000  1
  Rb+  Rb6  1  0.00000000  0.50000000  0.50000000  1
  Rb+  Rb7  1  0.75000000  0.75000000  0.25000000  1
  Ni3+  Ni8  1  0.00000000  0.00000000  0.50000000  1
  Ni3+  Ni9  1  0.25000000  0.75000000  0.25000000  1
  Ni3+  Ni10  1  0.00000000  0.50000000  0.00000000  1
  Ni3+  Ni11  1  0.25000000  0.25000000  0.75000000  1
  Ni3+  Ni12  1  0.50000000  0.00000000  0.00000000  1
  Ni3+  Ni13  1  0.75000000  0.75000000  0.75000000  1
  Ni3+  Ni14  1  0.50000000  0.50000000  0.50000000  1
  Ni3+  Ni15  1  0.75000000  0.25000000  0.25000000  1
  O2-  O16  1  0.12500000  0.62500000  0.12500000  1
  O2-  O17  1  0.12500000  0.87500000  0.37500000  1
  O2-  O18  1  0.37500000  0.87500000  0.12500000  1
  O2-  O19  1  0.37500000  0.62500000  0.37500000  1
  O2-  O20  1  0.12500000  0.12500000  0.62500000  1
  O2-  O21  1  0.12500000  0.37500000  0.87500000  1
  O2-  O22  1  0.37500000  0.37500000  0.62500000  1
  O2-  O23  1  0.37500000  0.12500000  0.87500000  1
  O2-  O24  1  0.62500000  0.62500000  0.62500000  1
  O2-  O25  1  0.62500000  0.87500000  0.87500000  1
  O2-  O26  1  0.87500000  0.87500000  0.62500000  1
  O2-  O27  1  0.87500000  0.62500000  0.87500000  1
  O2-  O28  1  0.62500000  0.12500000  0.12500000  1
  O2-  O29  1  0.62500000  0.37500000  0.37500000  1
  O2-  O30  1  0.87500000  0.37500000  0.12500000  1
  O2-  O31  1  0.87500000  0.12500000  0.37500000  1
