# generated using pymatgen
data_Sr2PdN2
_symmetry_space_group_name_H-M   'P 1'
_cell_length_a   3.85265397
_cell_length_b   3.85265397
_cell_length_c   13.06285999
_cell_angle_alpha   90.00000000
_cell_angle_beta   90.00000000
_cell_angle_gamma   90.00000000
_symmetry_Int_Tables_number   1
_chemical_formula_structural   Sr2PdN2
_chemical_formula_sum   'Sr4 Pd2 N4'
_cell_volume   193.89128099
_cell_formula_units_Z   2
loop_
 _symmetry_equiv_pos_site_id
 _symmetry_equiv_pos_as_xyz
  1  'x, y, z'
loop_
 _atom_type_symbol
 _atom_type_oxidation_number
  Sr2+  2.0
  Pd2+  2.0
  N3-  -3.0
loop_
 _atom_site_type_symbol
 _atom_site_label
 _atom_site_symmetry_multiplicity
 _atom_site_fract_x
 _atom_site_fract_y
 _atom_site_fract_z
 _atom_site_occupancy
  Sr2+  Sr0  1  0.00000000  0.00000000  0.15005100  1
  Sr2+  Sr1  1  0.00000000  0.00000000  0.84994900  1
  Sr2+  Sr2  1  0.50000000  0.50000000  0.65005100  1
  Sr2+  Sr3  1  0.50000000  0.50000000  0.34994900  1
  Pd2+  Pd4  1  0.50000000  0.50000000  0.00000000  1
  Pd2+  Pd5  1  0.00000000  0.00000000  0.50000000  1
  N3-  N6  1  0.50000000  0.50000000  0.14862200  1
  N3-  N7  1  0.50000000  0.50000000  0.85137800  1
  N3-  N8  1  0.00000000  0.00000000  0.64862200  1
  N3-  N9  1  0.00000000  0.00000000  0.35137800  1
