# generated using pymatgen
data_Sr3FeN3
_symmetry_space_group_name_H-M   'P 1'
_cell_length_a   7.62654580
_cell_length_b   7.62654580
_cell_length_c   5.28097266
_cell_angle_alpha   90.00000000
_cell_angle_beta   90.00000000
_cell_angle_gamma   120.00000000
_symmetry_Int_Tables_number   1
_chemical_formula_structural   Sr3FeN3
_chemical_formula_sum   'Sr6 Fe2 N6'
_cell_volume   266.01144125
_cell_formula_units_Z   2
loop_
 _symmetry_equiv_pos_site_id
 _symmetry_equiv_pos_as_xyz
  1  'x, y, z'
loop_
 _atom_type_symbol
 _atom_type_oxidation_number
  Sr2+  2.0
  Fe3+  3.0
  N3-  -3.0
loop_
 _atom_site_type_symbol
 _atom_site_label
 _atom_site_symmetry_multiplicity
 _atom_site_fract_x
 _atom_site_fract_y
 _atom_site_fract_z
 _atom_site_occupancy
  Sr2+  Sr0  1  0.72527877  0.08517380  0.25000000  1
  Sr2+  Sr1  1  0.64010497  0.72527877  0.75000000  1
  Sr2+  Sr2  1  0.08517380  0.35989503  0.75000000  1
  Sr2+  Sr3  1  0.91482620  0.64010497  0.25000000  1
  Sr2+  Sr4  1  0.35989503  0.27472123  0.25000000  1
  Sr2+  Sr5  1  0.27472123  0.91482620  0.75000000  1
  Fe3+  Fe6  1  0.33333333  0.66666667  0.25000000  1
  Fe3+  Fe7  1  0.66666667  0.33333333  0.75000000  1
  N3-  N8  1  0.68794874  0.11698175  0.75000000  1
  N3-  N9  1  0.57096699  0.68794874  0.25000000  1
  N3-  N10  1  0.11698175  0.42903301  0.25000000  1
  N3-  N11  1  0.88301825  0.57096699  0.75000000  1
  N3-  N12  1  0.42903301  0.31205126  0.75000000  1
  N3-  N13  1  0.31205126  0.88301825  0.25000000  1
