# generated using pymatgen
data_SrGe
_symmetry_space_group_name_H-M   'P 1'
_cell_length_a   4.82321012
_cell_length_b   11.38286362
_cell_length_c   4.20167515
_cell_angle_alpha   90.00000000
_cell_angle_beta   90.00000000
_cell_angle_gamma   90.00000000
_symmetry_Int_Tables_number   1
_chemical_formula_structural   SrGe
_chemical_formula_sum   'Sr4 Ge4'
_cell_volume   230.68012975
_cell_formula_units_Z   4
loop_
 _symmetry_equiv_pos_site_id
 _symmetry_equiv_pos_as_xyz
  1  'x, y, z'
loop_
 _atom_type_symbol
 _atom_type_oxidation_number
  Sr2+  2.0
  Ge2-  -2.0
loop_
 _atom_site_type_symbol
 _atom_site_label
 _atom_site_symmetry_multiplicity
 _atom_site_fract_x
 _atom_site_fract_y
 _atom_site_fract_z
 _atom_site_occupancy
  Sr2+  Sr0  1  0.00000000  0.13655398  0.75000000  1
  Sr2+  Sr1  1  0.50000000  0.36344602  0.25000000  1
  Sr2+  Sr2  1  0.50000000  0.63655398  0.75000000  1
  Sr2+  Sr3  1  0.00000000  0.86344602  0.25000000  1
  Ge2-  Ge4  1  0.00000000  0.43011495  0.75000000  1
  Ge2-  Ge5  1  0.50000000  0.06988505  0.25000000  1
  Ge2-  Ge6  1  0.50000000  0.93011495  0.75000000  1
  Ge2-  Ge7  1  0.00000000  0.56988505  0.25000000  1
