# generated using pymatgen
data_SrN2
_symmetry_space_group_name_H-M   'P 1'
_cell_length_a   3.81104052
_cell_length_b   3.81104052
_cell_length_c   6.29006752
_cell_angle_alpha   90.00000000
_cell_angle_beta   90.00000000
_cell_angle_gamma   90.00000000
_symmetry_Int_Tables_number   1
_chemical_formula_structural   SrN2
_chemical_formula_sum   'Sr2 N4'
_cell_volume   91.35712830
_cell_formula_units_Z   2
loop_
 _symmetry_equiv_pos_site_id
 _symmetry_equiv_pos_as_xyz
  1  'x, y, z'
loop_
 _atom_type_symbol
 _atom_type_oxidation_number
  Sr2+  2.0
  N-  -1.0
loop_
 _atom_site_type_symbol
 _atom_site_label
 _atom_site_symmetry_multiplicity
 _atom_site_fract_x
 _atom_site_fract_y
 _atom_site_fract_z
 _atom_site_occupancy
  Sr2+  Sr0  1  0.00000000  0.00000000  0.00000000  1
  Sr2+  Sr1  1  0.50000000  0.50000000  0.50000000  1
  N-  N2  1  0.50000000  0.50000000  0.09929214  1
  N-  N3  1  0.00000000  0.00000000  0.40070786  1
  N-  N4  1  0.00000000  0.00000000  0.59929214  1
  N-  N5  1  0.50000000  0.50000000  0.90070786  1
