# generated using pymatgen
data_ZnFeF6
_symmetry_space_group_name_H-M   'P 1'
_cell_length_a   5.18524248
_cell_length_b   5.18524248
_cell_length_c   13.20519213
_cell_angle_alpha   90.00000000
_cell_angle_beta   90.00000000
_cell_angle_gamma   120.00000000
_symmetry_Int_Tables_number   1
_chemical_formula_structural   ZnFeF6
_chemical_formula_sum   'Zn3 Fe3 F18'
_cell_volume   307.47761041
_cell_formula_units_Z   3
loop_
 _symmetry_equiv_pos_site_id
 _symmetry_equiv_pos_as_xyz
  1  'x, y, z'
loop_
 _atom_type_symbol
 _atom_type_oxidation_number
  Zn2+  2.0
  Fe4+  4.0
  F-  -1.0
loop_
 _atom_site_type_symbol
 _atom_site_label
 _atom_site_symmetry_multiplicity
 _atom_site_fract_x
 _atom_site_fract_y
 _atom_site_fract_z
 _atom_site_occupancy
  Zn2+  Zn0  1  0.33333333  0.66666667  0.16666667  1
  Zn2+  Zn1  1  1.00000000  0.00000000  0.50000000  1
  Zn2+  Zn2  1  0.66666667  0.33333333  0.83333333  1
  Fe4+  Fe3  1  0.00000000  0.00000000  0.00000000  1
  Fe4+  Fe4  1  0.66666667  0.33333333  0.33333333  1
  Fe4+  Fe5  1  0.33333333  0.66666667  0.66666667  1
  F-  F6  1  0.24608912  0.92541536  0.08063055  1
  F-  F7  1  0.07458464  0.32067376  0.08063055  1
  F-  F8  1  0.98734043  0.57942245  0.25270278  1
  F-  F9  1  0.59208203  0.01265957  0.25270278  1
  F-  F10  1  0.42057755  0.40791797  0.25270278  1
  F-  F11  1  0.67932624  0.75391088  0.08063055  1
  F-  F12  1  0.91275579  0.25874869  0.41396388  1
  F-  F13  1  0.74125131  0.65400709  0.41396388  1
  F-  F14  1  0.65400709  0.91275579  0.58603612  1
  F-  F15  1  0.25874869  0.34599291  0.58603612  1
  F-  F16  1  0.08724421  0.74125131  0.58603612  1
  F-  F17  1  0.34599291  0.08724421  0.41396388  1
  F-  F18  1  0.57942245  0.59208203  0.74729722  1
  F-  F19  1  0.40791797  0.98734043  0.74729722  1
  F-  F20  1  0.32067376  0.24608912  0.91936945  1
  F-  F21  1  0.92541536  0.67932624  0.91936945  1
  F-  F22  1  0.75391088  0.07458464  0.91936945  1
  F-  F23  1  0.01265957  0.42057755  0.74729722  1
